@<TRIPOS>MOLECULE
35
 22 26 0 0 0
SMALL
GASTEIGER

@<TRIPOS>ATOM
      1 C           0.0000    0.0000    0.0000 C.3     1  LIG1        0.1669
      2 N           0.0000    0.0000    0.0000 N.4     1  LIG1        0.2767
      3 H           0.0000    0.0000    0.0000 H       1  LIG1        0.2067
      4 C           0.0000    0.0000    0.0000 C.3     1  LIG1        0.1058
      5 C           0.0000    0.0000    0.0000 C.3     1  LIG1        0.0692
      6 C           0.0000    0.0000    0.0000 C.3     1  LIG1        0.0759
      7 C           0.0000    0.0000    0.0000 C.3     1  LIG1        0.2046
      8 O           0.0000    0.0000    0.0000 O.3     1  LIG1       -0.4730
      9 C           0.0000    0.0000    0.0000 C.ar    1  LIG1        0.1729
     10 C           0.0000    0.0000    0.0000 C.ar    1  LIG1        0.0148
     11 C           0.0000    0.0000    0.0000 C.ar    1  LIG1       -0.0172
     12 C           0.0000    0.0000    0.0000 C.ar    1  LIG1       -0.0009
     13 C           0.0000    0.0000    0.0000 C.ar    1  LIG1        0.0449
     14 C           0.0000    0.0000    0.0000 C.ar    1  LIG1        0.2289
     15 O           0.0000    0.0000    0.0000 O.3     1  LIG1       -0.2833
     16 C           0.0000    0.0000    0.0000 C.3     1  LIG1        0.0814
     17 C           0.0000    0.0000    0.0000 C.3     1  LIG1        0.0643
     18 C           0.0000    0.0000    0.0000 C.3     1  LIG1        0.0790
     19 C           0.0000    0.0000    0.0000 C.2     1  LIG1       -0.0223
     20 C           0.0000    0.0000    0.0000 C.2     1  LIG1        0.0054
     21 C           0.0000    0.0000    0.0000 C.3     1  LIG1        0.2136
     22 O           0.0000    0.0000    0.0000 O.3     1  LIG1       -0.2144
@<TRIPOS>BOND
     1     1     2    1
     2     2     3    1
     3     2     4    1
     4     4     5    1
     5     5     6    1
     6     6     7    1
     7     7     8    1
     8     8     9    1
     9     9    10   ar
    10     6    10    1
    11    10    11   ar
    12    11    12   ar
    13    12    13   ar
    14    13    14   ar
    15     9    14   ar
    16    14    15    1
    17    11    16    1
    18    16    17    1
    19     2    17    1
    20    17    18    1
    21     6    18    1
    22    18    19    1
    23    19    20    2
    24    20    21    1
    25     7    21    1
    26    21    22    1
